Circuit: * D:\!!!__GitHUB_repositories\MustangRadio_develepementVersion\01 Hardware\06 Filtry analogowe\9V0\9V0.asc

Warning: Multiple definitions of model "2scr375p" Type: BJT
Warning: Multiple definitions of model "bc857b" Type: BJT
Warning: Multiple definitions of model "bc847c" Type: BJT
Warning: Multiple definitions of model "bc847b" Type: BJT
Error on line 11 : l2 n004 n005 0,05mh rser=0
	 Unknown parameter "05mh"
WARNING: Node NC_01 is floating.
WARNING: Node NC_02 is floating.
WARNING: Node NC_03 is floating.
WARNING: Node NC_04 is floating.
WARNING: Node NC_06 is floating.
WARNING: Node NC_07 is floating.

WARNING: Less than two connections to node nc_01.  This node is used by c2.
WARNING: Less than two connections to node nc_02.  This node is used by c3.
WARNING: Less than two connections to node nc_03.  This node is used by c4.
WARNING: Less than two connections to node nc_04.  This node is used by c7.
WARNING: Less than two connections to node nc_05.  This node is used by r4.
WARNING: Less than two connections to node nc_06.  This node is used by c10.
WARNING: Less than two connections to node nc_07.  This node is used by c11.
Direct Newton iteration for .op point succeeded.
Heightened Def Con from 0.0111066 to 0.0111066

Date: Wed Jan  3 15:04:59 2024
Total elapsed time: 181.068 seconds.

tnom = 27
temp = 27
method = modified trap
totiter = 13591170
traniter = 13591164
tranpoints = 3397796
accept = 3397788
rejected = 9
matrix size = 28
fillins = 0
solver = Normal
Avg thread counts: 1.0/1.0/1.0/1.0
Matrix Compiler1: 1.27 KB object code size
Matrix Compiler2: 1.86 KB object code size  0.4/0.5/[0.2]

