Circuit: * D:\!!!__GitHUB_repositories\MustangRadio_develepementVersion\01 Hardware\06 Filtry analogowe\9V0\Draft1.asc

WARNING: Node N002 is floating.
WARNING: Node N003 is floating.
WARNING: Node N004 is floating.

WARNING: Less than two connections to node n003.  This node is used by c2.
WARNING: Less than two connections to node n004.  This node is used by c3.
Direct Newton iteration for .op point succeeded.

Date: Wed Sep 27 19:33:18 2023
Total elapsed time: 0.079 seconds.

tnom = 27
temp = 27
method = modified trap
totiter = 4235
traniter = 4232
tranpoints = 2117
accept = 1562
rejected = 555
matrix size = 5
fillins = 0
solver = Normal
Avg thread counts: 2.4/3.8/3.8/2.4
Matrix Compiler1:      11 opcodes  0.1/[0.1]/0.1
Matrix Compiler2: 309 bytes object code size  0.1/0.1/[0.0]

