Circuit: * D:\!!!__GitHUB_repositories\MustangRadio_develepementVersion\01 Hardware\06 Filtry analogowe\3V3\3V3.asc

Warning: Multiple definitions of model "2scr375p" Type: BJT
Warning: Multiple definitions of model "bc857b" Type: BJT
Warning: Multiple definitions of model "bc847c" Type: BJT
Warning: Multiple definitions of model "bc847b" Type: BJT
WARNING: Node NC_01 is floating.
WARNING: Node NC_02 is floating.
WARNING: Node NC_03 is floating.
WARNING: Node NC_05 is floating.
WARNING: Node NC_06 is floating.

WARNING: Less than two connections to node nc_01.  This node is used by c2.
WARNING: Less than two connections to node nc_02.  This node is used by c4.
WARNING: Less than two connections to node nc_03.  This node is used by c7.
WARNING: Less than two connections to node nc_04.  This node is used by r4.
WARNING: Less than two connections to node nc_05.  This node is used by c10.
WARNING: Less than two connections to node nc_06.  This node is used by c11.
Direct Newton iteration for .op point succeeded.

Date: Wed Aug 30 15:55:45 2023
Total elapsed time: 322.992 seconds.

tnom = 27
temp = 27
method = modified trap
totiter = 64067060
traniter = 64067054
tranpoints = 32031057
accept = 28520145
rejected = 3510912
matrix size = 28
fillins = 0
solver = Normal
Avg thread counts: 1.0/1.0/1.0/1.0
Matrix Compiler1: 1.30 KB object code size  0.4/0.3/[0.2]
Matrix Compiler2: 1.94 KB object code size  0.2/0.4/[0.2]

