Circuit: * D:\!!!__GitHUB_repositories\MustangRadio_develepementVersion\01 Hardware\06 Filtry analogowe\5V0\5V0.asc

Warning: Multiple definitions of model "2scr375p" Type: BJT
Warning: Multiple definitions of model "bc857b" Type: BJT
Warning: Multiple definitions of model "bc847c" Type: BJT
Warning: Multiple definitions of model "bc847b" Type: BJT
WARNING: Node NC_01 is floating.
WARNING: Node NC_02 is floating.
WARNING: Node NC_03 is floating.
WARNING: Node NC_05 is floating.
WARNING: Node NC_06 is floating.

WARNING: Less than two connections to node nc_01.  This node is used by c2.
WARNING: Less than two connections to node nc_02.  This node is used by c4.
WARNING: Less than two connections to node nc_03.  This node is used by c7.
WARNING: Less than two connections to node nc_04.  This node is used by r4.
WARNING: Less than two connections to node nc_05.  This node is used by c10.
WARNING: Less than two connections to node nc_06.  This node is used by c11.
Direct Newton iteration for .op point succeeded.
